data_ic502478u_si_003_cleanP-6
# Symmetrized structure with precision = 1e-10
_cell_length_a                  29.0549
_cell_length_b                  29.0549
_cell_length_c                  21.1658
_cell_angle_alpha               90
_cell_angle_beta                90
_cell_angle_gamma               120
_symmetry_space_group_name_H-M  'P-6'
_symmetry_Int_Tables_number     174

loop_
_atom_site_label
_atom_site_type_symbol
_atom_site_occupancy
_atom_site_fract_x
_atom_site_fract_y
_atom_site_fract_z
Cu1 Cu 1.0 0.4813600 0.6741000 0.0000000
Cu2 Cu 1.0 0.8647300 0.3541100 0.5000000
Cu3 Cu 1.0 0.8176800 0.8327000 0.2509000
Cu4 Cu 1.0 0.1692200 0.5173700 0.5000000
Cu5 Cu 1.0 0.6335200 0.4967500 0.2521900
Cu6 Cu 1.0 0.0057900 0.1722700 0.5000000
Cu7 Cu 1.0 0.0291600 0.1947300 0.0000000
Cu8 Cu 1.0 0.6175800 0.4867600 0.0000000
Cu9 Cu 1.0 0.4840900 0.6626900 0.2522300
P1 P 1.0 0.4389100 0.0912500 0.3651400
P2 P 1.0 0.2161000 0.9668800 0.6151300
P3 P 1.0 0.6230500 0.4242600 0.8580400
P4 P 1.0 0.3197600 0.7636900 0.1391200
P5 P 1.0 0.2344800 0.5570300 0.3867500
P6 P 1.0 0.7474600 0.7821400 0.1413100
P7 P 1.0 0.3526000 0.8820300 0.6343700
P8 P 1.0 0.4431700 0.0908600 0.8809700
P9 P 1.0 0.8866900 0.8850700 0.6368000
P10 P 1.0 0.3507500 0.8789400 0.8816900
P11 P 1.0 0.6261000 0.4262600 0.6118700
P12 P 1.0 0.8851500 0.8853600 0.1170600
H1 H 1.0 0.2208700 0.3417600 0.1904600
H2 H 1.0 0.8242500 0.2366100 0.4011900
H3 H 1.0 0.4138200 0.7585700 0.8587200
H4 H 1.0 0.8841500 0.2140000 0.2016900
H5 H 1.0 0.8838300 0.2133400 0.4451200
H6 H 1.0 0.4970100 0.3018900 0.8284300
H7 H 1.0 0.8903400 0.1022600 0.8386200
H8 H 1.0 0.4626300 0.4032400 0.7969300
H9 H 1.0 0.5359700 0.9885500 0.3092300
H10 H 1.0 0.8404500 0.1683500 0.0664600
H11 H 1.0 0.0066800 0.8313700 0.1444000
H12 H 1.0 0.5665100 0.3016400 0.8591500
H13 H 1.0 0.7577500 0.6880400 0.6228800
H14 H 1.0 0.1625300 0.7331300 0.1969100
H15 H 1.0 0.8355500 0.6131900 0.6655400
H16 H 1.0 0.0039500 0.4516000 0.6245400
H17 H 1.0 0.9021100 0.7603600 0.9624500
H18 H 1.0 0.4953600 0.9210600 0.9709600
H19 H 1.0 0.0774400 0.5730900 0.7292500
H20 H 1.0 0.8249200 0.9930700 0.3886600
H21 H 1.0 0.4364300 0.8119000 0.8295000
H22 H 1.0 0.4397500 0.5363000 0.4024600
H23 H 1.0 0.2667800 0.4304900 0.5594600
H24 H 1.0 0.8267800 0.2408700 0.8415600
H25 H 1.0 0.6110800 0.0553900 0.3625800
H26 H 1.0 0.0706900 0.8261000 0.7972700
H27 H 1.0 0.0709900 0.6087100 0.0988300
H28 H 1.0 0.2988400 0.5203100 0.0969400
H29 H 1.0 0.8821400 0.0237100 0.4443400
H30 H 1.0 0.9307800 0.7407400 0.8961000
H31 H 1.0 0.1471200 0.7166000 0.6444100
H32 H 1.0 0.9998100 0.8897700 0.6346000
H33 H 1.0 0.8568800 0.5217400 0.7666700
H34 H 1.0 0.5669000 0.3030700 0.3856200
H35 H 1.0 0.4793900 0.3351400 0.5243900
H36 H 1.0 0.6320600 0.7473300 0.8588100
H37 H 1.0 0.3911900 0.4614000 0.3396500
H38 H 1.0 0.4847800 0.8232500 0.2347100
H39 H 1.0 0.9836100 0.5030200 0.6228100
H40 H 1.0 0.8397800 0.1660600 0.6908900
H41 H 1.0 0.2835000 0.4294500 0.8880400
H42 H 1.0 0.7901300 0.6067800 0.9729900
H43 H 1.0 0.1322100 0.6411000 0.4077900
H44 H 1.0 0.7787700 0.1663500 0.0946100
H45 H 1.0 0.1102000 0.1103400 0.1220000
H46 H 1.0 0.4979300 0.3024700 0.4128800
H47 H 1.0 0.8813100 0.0229300 0.2009900
H48 H 1.0 0.3119500 0.0689200 0.8658800
H49 H 1.0 0.8240200 0.0245200 0.2959500
H50 H 1.0 0.1492100 0.2168700 0.8774600
H51 H 1.0 0.5723300 0.7924600 0.6216600
H52 H 1.0 0.8714900 0.5630700 0.8391500
H53 H 1.0 0.8733500 0.1730000 0.6274000
H54 H 1.0 0.2132700 0.1117700 0.4042700
H55 H 1.0 0.2139100 0.2795700 0.8683300
H56 H 1.0 0.3430900 0.5852500 0.3844200
H57 H 1.0 0.4820300 0.8217800 0.5235300
H58 H 1.0 0.9146800 0.9981300 0.6927700
H59 H 1.0 0.8732300 0.1743700 0.1284200
H60 H 1.0 0.7035800 0.8412200 0.0959500
H61 H 1.0 0.9494600 0.4964200 0.6143800
H62 H 1.0 0.5627200 0.5774200 0.6550900
H63 H 1.0 0.9028100 0.7608500 0.7202900
H64 H 1.0 0.7308800 0.6720700 0.3869000
H65 H 1.0 0.9748400 0.7988200 0.0534700
H66 H 1.0 0.5353300 0.9874400 0.0667500
H67 H 1.0 0.5606900 0.5762300 0.8945600
H68 H 1.0 0.3619700 0.4939600 0.1646900
H69 H 1.0 0.2234700 0.7027400 0.3403700
H70 H 1.0 0.6638400 0.8261900 0.2333700
H71 H 1.0 0.8178800 0.2086800 0.7315100
H72 H 1.0 0.1897400 0.8151500 0.8416600
H73 H 1.0 0.4438300 0.3885300 0.8816900
H74 H 1.0 0.4379800 0.8140800 0.5914000
H75 H 1.0 0.5474400 0.0506800 0.1412800
H76 H 1.0 0.5210200 0.3771200 0.9046100
H77 H 1.0 0.9417800 0.2705900 0.1433700
H78 H 1.0 0.4492400 0.9970600 0.8668200
H79 H 1.0 0.9396500 0.5364300 0.4472500
H80 H 1.0 0.5036000 0.5221400 0.2031300
H81 H 1.0 0.5729700 0.7934000 0.1347200
H82 H 1.0 0.4762000 0.9812800 0.5538700
H83 H 1.0 0.8564800 0.4780600 0.3381500
H84 H 1.0 0.6340300 0.7480700 0.6118700
H85 H 1.0 0.0837900 0.0857800 0.0635500
H86 H 1.0 0.8092300 0.0684700 0.3455400
H87 H 1.0 0.4411700 0.5396800 0.1591200
H88 H 1.0 0.4379600 0.3093300 0.4030700
H89 H 1.0 0.9846200 0.5050900 0.8666500
C1 C 1.0 0.4666700 0.5362300 0.1205600
C2 C 1.0 0.5976200 0.6163500 0.1149400
C3 C 1.0 0.3456100 0.5202500 0.8184400
C4 C 1.0 0.8415500 0.0656000 0.6816900
C5 C 1.0 0.3275100 0.1128400 0.6085900
C6 C 1.0 0.2914200 0.5044000 0.3905000
C7 C 1.0 0.3388600 0.9324900 0.1187400
C8 C 1.0 0.3386100 0.9335700 0.3634900
C9 C 1.0 0.5993000 0.6170800 0.6428800
C10 C 1.0 0.1808900 0.7362400 0.3912900
C11 C 1.0 0.3852900 0.1467800 0.8797100
C12 C 1.0 0.4662500 0.5352500 0.3634300
C13 C 1.0 0.6478600 0.3720400 0.8556300
C14 C 1.0 0.6709900 0.1511800 0.4225100
C15 C 1.0 0.4315800 0.4887600 0.0757800
C16 C 1.0 0.2887400 0.9262200 0.8637700
C17 C 1.0 0.3320900 0.0209500 0.1376900
C18 C 1.0 0.8196700 0.1908200 0.6842500
C19 C 1.0 0.1802500 0.3383300 0.1847700
C20 C 1.0 0.3451000 0.5199000 0.5770100
C21 C 1.0 0.0153700 0.4932200 0.3924200
C22 C 1.0 0.2835800 0.6619400 0.6119100
C23 C 1.0 0.4319000 0.4880500 0.6823400
C24 C 1.0 0.9745300 0.3561600 0.8779000
C25 C 1.0 0.9494700 0.0013200 0.9089000
C26 C 1.0 0.1870100 0.1122100 0.1213700
C27 C 1.0 0.3282100 0.1122500 0.1480000
C28 C 1.0 0.5912100 0.0703900 0.6032100
C29 C 1.0 0.3726800 0.1798700 0.9259000
C30 C 1.0 0.7450200 0.9169300 0.1512400
C31 C 1.0 0.6166100 0.1310800 0.6100800
C32 C 1.0 0.1442200 0.8569000 0.1468900
C33 C 1.0 0.0289800 0.3141300 0.1468200
C34 C 1.0 0.0488000 0.9983900 0.3575000
C35 C 1.0 0.8696800 0.0190800 0.1490000
C36 C 1.0 0.9298800 0.5214800 0.1527700
C37 C 1.0 0.9494400 0.9507800 0.1126800
C38 C 1.0 0.8419200 0.0661900 0.0760300
C39 C 1.0 0.5057500 0.5212000 0.1494000
C40 C 1.0 0.5134200 0.3826100 0.1469300
C41 C 1.0 0.9807400 0.8506400 0.6074600
C42 C 1.0 0.2921800 0.5038300 0.8529400
C43 C 1.0 0.8516700 0.2357500 0.6367400
C44 C 1.0 0.3817100 0.6712500 0.3903900
C45 C 1.0 0.3309300 0.0214600 0.6198100
C46 C 1.0 0.2831500 0.6610400 0.1447600
C47 C 1.0 0.3800100 0.0258200 0.3650600
C48 C 1.0 0.7050700 0.3891000 0.3884400
C49 C 1.0 0.4791400 0.3284300 0.8196200
C50 C 1.0 0.7239100 0.3513000 0.6098300
C51 C 1.0 0.2900300 0.6179200 0.8530500
C52 C 1.0 0.5562800 0.8202900 0.1477000
C53 C 1.0 0.6388200 0.7118500 0.6194900
C54 C 1.0 0.9253800 0.8124800 0.3643400
C55 C 1.0 0.6106800 0.3151400 0.8569700
C56 C 1.0 0.9497400 0.0015500 0.3353200
C57 C 1.0 0.0277800 0.3116100 0.6122300
O1 O 1.0 0.5175900 0.1912200 0.5658800
O2 O 1.0 0.4354000 0.6286700 0.8105200
O3 O 1.0 0.2595800 0.7395200 0.5717100
O4 O 1.0 0.4875000 0.5835800 0.3267900
O5 O 1.0 0.1096100 0.9721100 0.1949500
O6 O 1.0 0.5388000 0.6750100 0.1968800
O7 O 1.0 0.1675700 0.9107400 0.4199900
O8 O 1.0 0.0074100 0.2265500 0.9354600
O9 O 1.0 0.9366000 0.1028200 0.6706300
O10 O 1.0 0.8987900 0.8353900 0.0848400
O11 O 1.0 0.5637200 0.4157600 0.5765000
O12 O 1.0 0.9234500 0.4055900 0.0645500
O13 O 1.0 0.2604500 0.5189600 0.1835100
O14 O 1.0 0.0281700 0.1413600 0.5627500
O15 O 1.0 0.3002400 0.8368200 0.0640100
O16 O 1.0 0.9802300 0.2025200 0.4345300
O17 O 1.0 0.5624400 0.4144100 0.1807000
O18 O 1.0 0.9205000 0.3803600 0.8034100
O19 O 1.0 0.0480300 0.1652400 0.3178600
O20 O 1.0 0.4165800 0.9070800 0.9180600
O21 O 1.0 0.8378300 0.8890800 0.0656400
O22 O 1.0 0.6404700 0.4541000 0.0646300
O23 O 1.0 0.0004700 0.2265200 0.6895800
O24 O 1.0 0.1641000 0.4664600 0.3159100
O25 O 1.0 0.8117000 0.3296700 0.8149600
O26 O 1.0 0.8781200 0.2871200 0.0824200
O27 O 1.0 0.3227100 0.8565800 0.4389300
O28 O 1.0 0.2206400 0.5701900 0.9363900
O29 O 1.0 0.3472700 0.7763900 0.6923200
O30 O 1.0 0.4840700 0.0850400 0.6851800
O31 O 1.0 0.1939600 0.5691800 0.5617500
O32 O 1.0 0.4640800 0.0835800 0.4373700
O33 O 1.0 0.7422600 0.8357200 0.8205600
O34 O 1.0 0.5464200 0.1938300 0.3097400
O35 O 1.0 0.9829800 0.1999000 0.8153900
O36 O 1.0 0.7157900 0.5902900 0.6740100
